
Clear
New Circuit.ieee123
~ basekv=4.16 Bus1=150 pu=1.00 R1=0 X1=0.0001 R0=0 X0=0.0001
    Redirect PV.dss
Redirect Transformer.dss
Redirect Load.dss
Redirect Capacitor.dss
Redirect Line.dss
