new Line.0a19f4c826 Bus1=149 Bus2=1 C0=1.6 C1=3.4 CMatrix=[2.8517100719999995, -0.920293787, -0.350755566, -0.920293787, 3.004631862, -0.585011253, -0.350755566, -0.585011253, 2.71134756] EmergAmps=600.0 Geometry= LineCode=1 NormAmps=400.0 NumCust=0 Parent=0 Phases=3 R0=0.1784 R1=0.058 Rg=0.01805 Rho=100.0 RMatrix=[0.086666667, 0.029545455, 0.02907197, 0.029545455, 0.088371212, 0.029924242, 0.02907197, 0.029924242, 0.087405303] Spacing= TotalCust=0 Units=0 X0=0.4047 X1=0.1206 Xg=0.155081 XMatrix=[0.204166667, 0.095018939, 0.072897727, 0.095018939, 0.198522727, 0.080227273, 0.072897727, 0.080227273, 0.201723485] Yprim=[6.422970611176341, -13.318244469441764, -3.1198970975103664, 4.571812122685889, -1.1258181941131997, 2.9696646760397902, -6.422970611176341, 13.318244684455637, 3.1198970975103664, -4.571812192074407, 1.1258181941131997, -2.9696647024861367, -3.1198970975103664, 4.571812122685889, 7.182343584028698, -13.801161344424074, -1.911067478068104, 3.6244765047559415, 3.1198970975103664, -4.571812192074407, -7.182343584028698, 13.80116157096798, 1.911067478068104, -3.624476548864751, -1.1258181941131997, 2.9696646760397902, -1.911067478068104, 3.6244765047559415, 5.770479295366923, -12.853288462088235, 1.1258181941131997, -2.9696647024861367, 1.911067478068104, -3.624476548864751, -5.770479295366923, 12.853288666519026, -6.422970611176341, 13.318244684455637, 3.1198970975103664, -4.571812192074407, 1.1258181941131997, -2.9696647024861367, 6.422970611176341, -13.318244469441764, -3.1198970975103664, 4.571812122685889, -1.1258181941131997, 2.9696646760397902, 3.1198970975103664, -4.571812192074407, -7.182343584028698, 13.80116157096798, 1.911067478068104, -3.624476548864751, -3.1198970975103664, 4.571812122685889, 7.182343584028698, -13.801161344424074, -1.911067478068104, 3.6244765047559415, 1.1258181941131997, -2.9696647024861367, 1.911067478068104, -3.624476548864751, -5.770479295366923, 12.853288666519026, -1.1258181941131997, 2.9696646760397902, -1.911067478068104, 3.6244765047559415, 5.770479295366923, -12.853288462088235] Idx=1 IsSwitch=False SeasonRating=400.0 bus1=fba11f27dc bus2=050fc1b7d1 Length=0.3816096287461458 ;
new Line.a8679b6f5d Bus1=1.2 Bus2=2.2 C0=3.4 C1=3.4 CMatrix=[2.270366128] EmergAmps=600.0 Geometry= LineCode=10 NormAmps=400.0 NumCust=0 Parent=0 Phases=1 R0=0.058 R1=0.058 Rg=0.01805 Rho=100.0 RMatrix=[0.251742424] Spacing= TotalCust=0 Units=0 X0=0.1206 X1=0.1206 Xg=0.155081 XMatrix=[0.255208333] Yprim=[11.194288766701773, -11.34840807132733, -11.194288766701773, 11.348408146219269, -11.194288766701773, 11.348408146219269, 11.194288766701773, -11.34840807132733] Idx=2 IsSwitch=False SeasonRating=400.0 bus1=c060c46b89 bus2=d9a1fcc6f2 Length=0.17253558071657946 ;
new Line.337acef2ce Bus1=1.3 Bus2=3.3 C0=3.4 C1=3.4 CMatrix=[2.270366128] EmergAmps=600.0 Geometry= LineCode=11 NormAmps=400.0 NumCust=0 Parent=0 Phases=1 R0=0.058 R1=0.058 Rg=0.01805 Rho=100.0 RMatrix=[0.251742424] Spacing= TotalCust=0 Units=0 X0=0.1206 X1=0.1206 Xg=0.155081 XMatrix=[0.255208333] Yprim=[7.836002136691239, -7.943885595365004, -7.836002136691239, 7.943885702353487, -7.836002136691239, 7.943885702353487, 7.836002136691239, -7.943885595365004] Idx=3 IsSwitch=False SeasonRating=400.0 bus1=edea7eec8d bus2=a6127a5355 Length=0.24286897366562088 ;
new Line.530e1b3d24 Bus1=1.1.2.3 Bus2=7.1.2.3 C0=1.6 C1=3.4 CMatrix=[2.8517100719999995, -0.920293787, -0.350755566, -0.920293787, 3.004631862, -0.585011253, -0.350755566, -0.585011253, 2.71134756] EmergAmps=600.0 Geometry= LineCode=1 NormAmps=400.0 NumCust=0 Parent=0 Phases=3 R0=0.1784 R1=0.058 Rg=0.01805 Rho=100.0 RMatrix=[0.086666667, 0.029545455, 0.02907197, 0.029545455, 0.088371212, 0.029924242, 0.02907197, 0.029924242, 0.087405303] Spacing= TotalCust=0 Units=0 X0=0.4047 X1=0.1206 Xg=0.155081 XMatrix=[0.204166667, 0.095018939, 0.072897727, 0.095018939, 0.198522727, 0.080227273, 0.072897727, 0.080227273, 0.201723485] Yprim=[8.563960814901792, -17.75765941801378, -4.159862796680489, 6.095749537391155, -1.5010909254842677, 3.9595529168134234, -8.563960814901792, 17.757659579274186, 4.159862796680489, -6.095749589432542, 1.5010909254842677, -3.9595529366481834, -4.159862796680489, 6.095749537391155, 9.576458112038265, -18.401548591382713, -2.548089970757473, 4.8326353654047285, 4.159862796680489, -6.095749589432542, -9.576458112038265, 18.40154876129064, 2.548089970757473, -4.832635398486335, -1.5010909254842677, 3.9595529168134234, -2.548089970757473, 4.8326353654047285, 7.693972393822567, -17.137718068702277, 1.5010909254842677, -3.9595529366481834, 2.548089970757473, -4.832635398486335, -7.693972393822567, 17.13771822202537, -8.563960814901792, 17.757659579274186, 4.159862796680489, -6.095749589432542, 1.5010909254842677, -3.9595529366481834, 8.563960814901792, -17.75765941801378, -4.159862796680489, 6.095749537391155, -1.5010909254842677, 3.9595529168134234, 4.159862796680489, -6.095749589432542, -9.576458112038265, 18.40154876129064, 2.548089970757473, -4.832635398486335, -4.159862796680489, 6.095749537391155, 9.576458112038265, -18.401548591382713, -2.548089970757473, 4.8326353654047285, 1.5010909254842677, -3.9595529366481834, 2.548089970757473, -4.832635398486335, -7.693972393822567, 17.13771822202537, -1.5010909254842677, 3.9595529168134234, -2.548089970757473, 4.8326353654047285, 7.693972393822567, -17.137718068702277] Idx=4 IsSwitch=False SeasonRating=400.0 bus1=b6800cd4d4 bus2=45e3776010 Length=0.3028368636833281 ;
new Line.20871b589c Bus1=3.3 Bus2=4.3 C0=3.4 C1=3.4 CMatrix=[2.270366128] EmergAmps=600.0 Geometry= LineCode=11 NormAmps=400.0 NumCust=0 Parent=0 Phases=1 R0=0.058 R1=0.058 Rg=0.01805 Rho=100.0 RMatrix=[0.251742424] Spacing= TotalCust=0 Units=0 X0=0.1206 X1=0.1206 Xg=0.155081 XMatrix=[0.255208333] Yprim=[9.795002670864049, -9.929857042351072, -9.795002670864049, 9.929857127941858, -9.795002670864049, 9.929857127941858, 9.795002670864049, -9.929857042351072] Idx=5 IsSwitch=False SeasonRating=400.0 bus1=a6127a5355 bus2=e566b09aa9 Length=0.20697967670592202 ;
new Line.6b0758f3e1 Bus1=3.3 Bus2=5.3 C0=3.4 C1=3.4 CMatrix=[2.270366128] EmergAmps=600.0 Geometry= LineCode=11 NormAmps=400.0 NumCust=0 Parent=0 Phases=1 R0=0.058 R1=0.058 Rg=0.01805 Rho=100.0 RMatrix=[0.251742424] Spacing= TotalCust=0 Units=0 X0=0.1206 X1=0.1206 Xg=0.155081 XMatrix=[0.255208333] Yprim=[6.027693951300954, -6.110681170417655, -6.027693951300954, 6.110681309502683, -6.027693951300954, 6.110681309502683, 6.027693951300954, -6.110681170417655] Idx=6 IsSwitch=False SeasonRating=400.0 bus1=a6127a5355 bus2=8c4af640b1 Length=0.3386530277498597 ;
new Line.ce7ea31f9e Bus1=5.3 Bus2=6.3 C0=3.4 C1=3.4 CMatrix=[2.270366128] EmergAmps=600.0 Geometry= LineCode=11 NormAmps=400.0 NumCust=0 Parent=0 Phases=1 R0=0.058 R1=0.058 Rg=0.01805 Rho=100.0 RMatrix=[0.251742424] Spacing= TotalCust=0 Units=0 X0=0.1206 X1=0.1206 Xg=0.155081 XMatrix=[0.255208333] Yprim=[7.836002136691239, -7.943885595365004, -7.836002136691239, 7.943885702353487, -7.836002136691239, 7.943885702353487, 7.836002136691239, -7.943885595365004] Idx=7 IsSwitch=False SeasonRating=400.0 bus1=8c4af640b1 bus2=7017be3df2 Length=0.2410549874586104 ;
new Line.5390f72ac7 Bus1=7.1.2.3 Bus2=8.1.2.3 C0=1.6 C1=3.4 CMatrix=[2.8517100719999995, -0.920293787, -0.350755566, -0.920293787, 3.004631862, -0.585011253, -0.350755566, -0.585011253, 2.71134756] EmergAmps=600.0 Geometry= LineCode=1 NormAmps=400.0 NumCust=0 Parent=0 Phases=3 R0=0.1784 R1=0.058 Rg=0.01805 Rho=100.0 RMatrix=[0.086666667, 0.029545455, 0.02907197, 0.029545455, 0.088371212, 0.029924242, 0.02907197, 0.029924242, 0.087405303] Spacing= TotalCust=0 Units=0 X0=0.4047 X1=0.1206 Xg=0.155081 XMatrix=[0.204166667, 0.095018939, 0.072897727, 0.095018939, 0.198522727, 0.080227273, 0.072897727, 0.080227273, 0.201723485] Yprim=[12.845941222352682, -26.636489261404336, -6.239794195020733, 9.143624349454555, -2.2516363882263994, 5.9393293917491, -12.845941222352682, 26.636489368911274, 6.239794195020733, -9.143624384148813, 2.2516363882263994, -5.939329404972273, -6.239794195020733, 9.143624349454555, 14.364687168057396, -27.602323028664006, -3.822134956136208, 7.2489530756750975, 6.239794195020733, -9.143624384148813, -14.364687168057396, 27.60232314193596, 3.822134956136208, -7.248953097729502, -2.2516363882263994, 5.9393293917491, -3.822134956136208, 7.2489530756750975, 11.540958590733846, -25.706577230822656, 2.2516363882263994, -5.939329404972273, 3.822134956136208, -7.248953097729502, -11.540958590733846, 25.70657733303805, -12.845941222352682, 26.636489368911274, 6.239794195020733, -9.143624384148813, 2.2516363882263994, -5.939329404972273, 12.845941222352682, -26.636489261404336, -6.239794195020733, 9.143624349454555, -2.2516363882263994, 5.9393293917491, 6.239794195020733, -9.143624384148813, -14.364687168057396, 27.60232314193596, 3.822134956136208, -7.248953097729502, -6.239794195020733, 9.143624349454555, 14.364687168057396, -27.602323028664006, -3.822134956136208, 7.2489530756750975, 2.2516363882263994, -5.939329404972273, 3.822134956136208, -7.248953097729502, -11.540958590733846, 25.70657733303805, -2.2516363882263994, 5.9393293917491, -3.822134956136208, 7.2489530756750975, 11.540958590733846, -25.706577230822656] Idx=8 IsSwitch=False SeasonRating=400.0 bus1=45e3776010 bus2=f8ffce859d Length=0.19773849282448738 ;
new Line.acf71e4773 Bus1=8.2 Bus2=12.2 C0=3.4 C1=3.4 CMatrix=[2.270366128] EmergAmps=600.0 Geometry= LineCode=10 NormAmps=400.0 NumCust=0 Parent=0 Phases=1 R0=0.058 R1=0.058 Rg=0.01805 Rho=100.0 RMatrix=[0.251742424] Spacing= TotalCust=0 Units=0 X0=0.1206 X1=0.1206 Xg=0.155081 XMatrix=[0.255208333] Yprim=[8.706669040768043, -8.826539572992017, -8.706669040768043, 8.826539669281651, -8.706669040768043, 8.826539669281651, 8.706669040768043, -8.826539572992017] Idx=9 IsSwitch=False SeasonRating=400.0 bus1=3833c7bf4b bus2=2a8e648d0e Length=0.2358083786427021 ;
new Line.6fd79ca878 Bus1=8.1 Bus2=9.1 C0=3.4 C1=3.4 CMatrix=[2.270366128] EmergAmps=600.0 Geometry= LineCode=9 NormAmps=400.0 NumCust=0 Parent=0 Phases=1 R0=0.058 R1=0.058 Rg=0.01805 Rho=100.0 RMatrix=[0.251742424] Spacing= TotalCust=0 Units=0 X0=0.1206 X1=0.1206 Xg=0.155081 XMatrix=[0.255208333] Yprim=[8.706669040768043, -8.826539572992017, -8.706669040768043, 8.826539669281651, -8.706669040768043, 8.826539669281651, 8.706669040768043, -8.826539572992017] Idx=10 IsSwitch=False SeasonRating=400.0 bus1=85df15e321 bus2=fb10df57b8 Length=0.21581933084278876 ;
new Line.1bf100af5d Bus1=8.1.2.3 Bus2=13.1.2.3 C0=1.6 C1=3.4 CMatrix=[2.8517100719999995, -0.920293787, -0.350755566, -0.920293787, 3.004631862, -0.585011253, -0.350755566, -0.585011253, 2.71134756] EmergAmps=600.0 Geometry= LineCode=1 NormAmps=400.0 NumCust=0 Parent=0 Phases=3 R0=0.1784 R1=0.058 Rg=0.01805 Rho=100.0 RMatrix=[0.086666667, 0.029545455, 0.02907197, 0.029545455, 0.088371212, 0.029924242, 0.02907197, 0.029924242, 0.087405303] Spacing= TotalCust=0 Units=0 X0=0.4047 X1=0.1206 Xg=0.155081 XMatrix=[0.204166667, 0.095018939, 0.072897727, 0.095018939, 0.198522727, 0.080227273, 0.072897727, 0.080227273, 0.201723485] Yprim=[8.563960814901792, -17.75765941801378, -4.159862796680489, 6.095749537391155, -1.5010909254842677, 3.9595529168134234, -8.563960814901792, 17.757659579274186, 4.159862796680489, -6.095749589432542, 1.5010909254842677, -3.9595529366481834, -4.159862796680489, 6.095749537391155, 9.576458112038265, -18.401548591382713, -2.548089970757473, 4.8326353654047285, 4.159862796680489, -6.095749589432542, -9.576458112038265, 18.40154876129064, 2.548089970757473, -4.832635398486335, -1.5010909254842677, 3.9595529168134234, -2.548089970757473, 4.8326353654047285, 7.693972393822567, -17.137718068702277, 1.5010909254842677, -3.9595529366481834, 2.548089970757473, -4.832635398486335, -7.693972393822567, 17.13771822202537, -8.563960814901792, 17.757659579274186, 4.159862796680489, -6.095749589432542, 1.5010909254842677, -3.9595529366481834, 8.563960814901792, -17.75765941801378, -4.159862796680489, 6.095749537391155, -1.5010909254842677, 3.9595529168134234, 4.159862796680489, -6.095749589432542, -9.576458112038265, 18.40154876129064, 2.548089970757473, -4.832635398486335, -4.159862796680489, 6.095749537391155, 9.576458112038265, -18.401548591382713, -2.548089970757473, 4.8326353654047285, 1.5010909254842677, -3.9595529366481834, 2.548089970757473, -4.832635398486335, -7.693972393822567, 17.13771822202537, -1.5010909254842677, 3.9595529168134234, -2.548089970757473, 4.8326353654047285, 7.693972393822567, -17.137718068702277] Idx=11 IsSwitch=False SeasonRating=400.0 bus1=f8ffce859d bus2=85f67e1014 Length=0.3086356359436442 ;
new Line.08167c55a9 Bus1=9r.1 Bus2=14.1 C0=3.4 C1=3.4 CMatrix=[2.270366128] EmergAmps=600.0 Geometry= LineCode=9 NormAmps=400.0 NumCust=0 Parent=0 Phases=1 R0=0.058 R1=0.058 Rg=0.01805 Rho=100.0 RMatrix=[0.251742424] Spacing= TotalCust=0 Units=0 X0=0.1206 X1=0.1206 Xg=0.155081 XMatrix=[0.255208333] Yprim=[4.609413021583083, -4.672873760680453, -4.609413021583083, 4.672873942560875, -4.609413021583083, 4.672873942560875, 4.609413021583083, -4.672873760680453] Idx=12 IsSwitch=False SeasonRating=400.0 bus1=47f0edf178 bus2=e355a171aa Length=0.43987835062872543 ;
new Line.b309423f54 Bus1=13.3 Bus2=34.3 C0=3.4 C1=3.4 CMatrix=[2.270366128] EmergAmps=600.0 Geometry= LineCode=11 NormAmps=400.0 NumCust=0 Parent=0 Phases=1 R0=0.058 R1=0.058 Rg=0.01805 Rho=100.0 RMatrix=[0.251742424] Spacing= TotalCust=0 Units=0 X0=0.1206 X1=0.1206 Xg=0.155081 XMatrix=[0.255208333] Yprim=[13.060003561152065, -13.239809439729388, -13.060003561152065, 13.239809503922478, -13.060003561152065, 13.239809503922478, 13.060003561152065, -13.239809439729388] Idx=13 IsSwitch=False SeasonRating=400.0 bus1=061ae8f9e1 bus2=5cebec11bd Length=0.14608253879612132 ;
new Line.7acf4a2735 Bus1=13.1.2.3 Bus2=18.1.2.3 C0=1.6 C1=3.4 CMatrix=[3.004631862, -0.585011253, -0.920293787, -0.585011253, 2.71134756, -0.350755566, -0.920293787, -0.350755566, 2.8517100719999995] EmergAmps=600.0 Geometry= LineCode=2 NormAmps=400.0 NumCust=0 Parent=0 Phases=3 R0=0.1784 R1=0.058 Rg=0.01805 Rho=100.0 RMatrix=[0.088371212, 0.02992424, 0.029545455, 0.02992424, 0.087405303, 0.02907197, 0.029545455, 0.02907197, 0.086666667] Spacing= TotalCust=0 Units=0 X0=0.4047 X1=0.1206 Xg=0.155081 XMatrix=[0.198522727, 0.080227273, 0.095018939, 0.080227273, 0.201723485, 0.072897727, 0.095018939, 0.072897727, 0.204166667] Yprim=[3.4823484325344802, -6.6914717689308825, -0.9265782275935145, 1.7573218000400386, -1.5126773719649902, 2.2166360777500764, -3.4823484325344802, 6.691472236177687, 0.9265782275935145, -1.7573218910144577, 1.5126773719649902, -2.2166362208638923, -0.9265782275935145, 1.7573218000400386, 2.797808170793111, -6.231897078363182, -0.5458512331612879, 1.439837398965945, 0.9265782275935145, -1.7573218910144577, -2.797808170793111, 6.231897500001685, 0.5458512331612879, -1.4398374535115348, -1.5126773719649902, 2.2166360777500764, -0.5458512331612879, 1.439837398965945, 3.1141675612477306, -6.457330323813868, 1.5126773719649902, -2.2166362208638923, 0.5458512331612879, -1.4398374535115348, -3.1141675612477306, 6.4573307672799825, -3.4823484325344802, 6.691472236177687, 0.9265782275935145, -1.7573218910144577, 1.5126773719649902, -2.2166362208638923, 3.4823484325344802, -6.6914717689308825, -0.9265782275935145, 1.7573218000400386, -1.5126773719649902, 2.2166360777500764, 0.9265782275935145, -1.7573218910144577, -2.797808170793111, 6.231897500001685, 0.5458512331612879, -1.4398374535115348, -0.9265782275935145, 1.7573218000400386, 2.797808170793111, -6.231897078363182, -0.5458512331612879, 1.439837398965945, 1.5126773719649902, -2.2166362208638923, 0.5458512331612879, -1.4398374535115348, -3.1141675612477306, 6.4573307672799825, -1.5126773719649902, 2.2166360777500764, -0.5458512331612879, 1.439837398965945, 3.1141675612477306, -6.457330323813868] Idx=14 IsSwitch=False SeasonRating=400.0 bus1=85f67e1014 bus2=897937ac66 Length=0.8644070506232719 ;
new Line.3bfd95ff8c Bus1=14.1 Bus2=11.1 C0=3.4 C1=3.4 CMatrix=[2.270366128] EmergAmps=600.0 Geometry= LineCode=9 NormAmps=400.0 NumCust=0 Parent=0 Phases=1 R0=0.058 R1=0.058 Rg=0.01805 Rho=100.0 RMatrix=[0.251742424] Spacing= TotalCust=0 Units=0 X0=0.1206 X1=0.1206 Xg=0.155081 XMatrix=[0.255208333] Yprim=[7.836002136691239, -7.943885595365004, -7.836002136691239, 7.943885702353487, -7.836002136691239, 7.943885702353487, 7.836002136691239, -7.943885595365004] Idx=15 IsSwitch=False SeasonRating=400.0 bus1=e355a171aa bus2=edb78c7f29 Length=0.2552129728623188 ;
new Line.38f3884ebb Bus1=14.1 Bus2=10.1 C0=3.4 C1=3.4 CMatrix=[2.270366128] EmergAmps=600.0 Geometry= LineCode=9 NormAmps=400.0 NumCust=0 Parent=0 Phases=1 R0=0.058 R1=0.058 Rg=0.01805 Rho=100.0 RMatrix=[0.251742424] Spacing= TotalCust=0 Units=0 X0=0.1206 X1=0.1206 Xg=0.155081 XMatrix=[0.255208333] Yprim=[7.836002136691239, -7.943885595365004, -7.836002136691239, 7.943885702353487, -7.836002136691239, 7.943885702353487, 7.836002136691239, -7.943885595365004] Idx=16 IsSwitch=False SeasonRating=400.0 bus1=e355a171aa bus2=ad8820a979 Length=0.24458500093422342 ;
new Line.c7c4fb15d1 Bus1=15.3 Bus2=16.3 C0=3.4 C1=3.4 CMatrix=[2.270366128] EmergAmps=600.0 Geometry= LineCode=11 NormAmps=400.0 NumCust=0 Parent=0 Phases=1 R0=0.058 R1=0.058 Rg=0.01805 Rho=100.0 RMatrix=[0.251742424] Spacing= TotalCust=0 Units=0 X0=0.1206 X1=0.1206 Xg=0.155081 XMatrix=[0.255208333] Yprim=[5.224001424460827, -5.295923641086267, -5.224001424460827, 5.295923801568992, -5.224001424460827, 5.295923801568992, 5.224001424460827, -5.295923641086267] Idx=17 IsSwitch=False SeasonRating=400.0 bus1=0c1b2824c8 bus2=258835a5b1 Length=0.36813846738434447 ;
new Line.e914559c84 Bus1=15.3 Bus2=17.3 C0=3.4 C1=3.4 CMatrix=[2.270366128] EmergAmps=600.0 Geometry= LineCode=11 NormAmps=400.0 NumCust=0 Parent=0 Phases=1 R0=0.058 R1=0.058 Rg=0.01805 Rho=100.0 RMatrix=[0.251742424] Spacing= TotalCust=0 Units=0 X0=0.1206 X1=0.1206 Xg=0.155081 XMatrix=[0.255208333] Yprim=[5.597144383350886, -5.6742039233257575, -5.597144383350886, 5.674204073109634, -5.597144383350886, 5.674204073109634, 5.597144383350886, -5.6742039233257575] Idx=18 IsSwitch=False SeasonRating=400.0 bus1=0c1b2824c8 bus2=e79d2bb413 Length=0.3670730775081081 ;
new Line.84b711ba58 Bus1=18.1 Bus2=19.1 C0=3.4 C1=3.4 CMatrix=[2.270366128] EmergAmps=600.0 Geometry= LineCode=9 NormAmps=400.0 NumCust=0 Parent=0 Phases=1 R0=0.058 R1=0.058 Rg=0.01805 Rho=100.0 RMatrix=[0.251742424] Spacing= TotalCust=0 Units=0 X0=0.1206 X1=0.1206 Xg=0.155081 XMatrix=[0.255208333] Yprim=[7.836002136691239, -7.943885595365004, -7.836002136691239, 7.943885702353487, -7.836002136691239, 7.943885702353487, 7.836002136691239, -7.943885595365004] Idx=19 IsSwitch=False SeasonRating=400.0 bus1=85df15e321 bus2=2f836386e3 Length=0.2568227508558284 ;
new Line.93e32f8d41 Bus1=18.1.2.3 Bus2=21.1.2.3 C0=1.6 C1=3.4 CMatrix=[3.004631862, -0.585011253, -0.920293787, -0.585011253, 2.71134756, -0.350755566, -0.920293787, -0.350755566, 2.8517100719999995] EmergAmps=600.0 Geometry= LineCode=2 NormAmps=400.0 NumCust=0 Parent=0 Phases=3 R0=0.1784 R1=0.058 Rg=0.01805 Rho=100.0 RMatrix=[0.088371212, 0.02992424, 0.029545455, 0.02992424, 0.087405303, 0.02907197, 0.029545455, 0.02907197, 0.086666667] Spacing= TotalCust=0 Units=0 X0=0.4047 X1=0.1206 Xg=0.155081 XMatrix=[0.198522727, 0.080227273, 0.095018939, 0.080227273, 0.201723485, 0.072897727, 0.095018939, 0.072897727, 0.204166667] Yprim=[9.576458189469822, -18.40154847958071, -2.5480901258821644, 4.832635167208151, -4.159862772903724, 6.095749555334318, -9.576458189469822, 18.40154864948864, 2.5480901258821644, -4.832635200289758, 4.159862772903724, -6.095749607375705, -2.5480901258821644, 4.832635167208151, 7.693972469681056, -17.137717971681543, -1.5010908911935426, 3.95955297732196, 2.5480901258821644, -4.832635200289758, -7.693972469681056, 17.137718125004636, 1.5010908911935426, -3.9595529971567203, -4.159862772903724, 6.095749555334318, -1.5010908911935426, 3.95955297732196, 8.56396079343126, -17.757659448759547, 4.159862772903724, -6.095749607375705, 1.5010908911935426, -3.9595529971567203, -8.56396079343126, 17.757659610019953, -9.576458189469822, 18.40154864948864, 2.5480901258821644, -4.832635200289758, 4.159862772903724, -6.095749607375705, 9.576458189469822, -18.40154847958071, -2.5480901258821644, 4.832635167208151, -4.159862772903724, 6.095749555334318, 2.5480901258821644, -4.832635200289758, -7.693972469681056, 17.137718125004636, 1.5010908911935426, -3.9595529971567203, -2.5480901258821644, 4.832635167208151, 7.693972469681056, -17.137717971681543, -1.5010908911935426, 3.95955297732196, 4.159862772903724, -6.095749607375705, 1.5010908911935426, -3.9595529971567203, -8.56396079343126, 17.757659610019953, -4.159862772903724, 6.095749555334318, -1.5010908911935426, 3.95955297732196, 8.56396079343126, -17.757659448759547] Idx=20 IsSwitch=False SeasonRating=400.0 bus1=897937ac66 bus2=2a8e648d0e Length=0.28975215108997415 ;
new Line.291260cda9 Bus1=19.1 Bus2=20.1 C0=3.4 C1=3.4 CMatrix=[2.270366128] EmergAmps=600.0 Geometry= LineCode=9 NormAmps=400.0 NumCust=0 Parent=0 Phases=1 R0=0.058 R1=0.058 Rg=0.01805 Rho=100.0 RMatrix=[0.251742424] Spacing= TotalCust=0 Units=0 X0=0.1206 X1=0.1206 Xg=0.155081 XMatrix=[0.255208333] Yprim=[6.027693951300954, -6.110681170417655, -6.027693951300954, 6.110681309502683, -6.027693951300954, 6.110681309502683, 6.027693951300954, -6.110681170417655] Idx=21 IsSwitch=False SeasonRating=400.0 bus1=2f836386e3 bus2=a0704d9953 Length=0.33067016865029014 ;
new Line.1bf100af5d Bus1=21.2 Bus2=22.2 C0=3.4 C1=3.4 CMatrix=[2.270366128] EmergAmps=600.0 Geometry= LineCode=10 NormAmps=400.0 NumCust=0 Parent=0 Phases=1 R0=0.058 R1=0.058 Rg=0.01805 Rho=100.0 RMatrix=[0.251742424] Spacing= TotalCust=0 Units=0 X0=0.1206 X1=0.1206 Xg=0.155081 XMatrix=[0.255208333] Yprim=[3.731429588900591, -3.7828024907306084, -3.731429588900591, 3.782802715406423, -3.731429588900591, 3.782802715406423, 3.731429588900591, -3.7828024907306084] Idx=22 IsSwitch=False SeasonRating=400.0 bus1=577d8590b9 bus2=8c97415a3c Length=0.515552766650566 ;
new Line.6d636dea7a Bus1=21.1.2.3 Bus2=23.1.2.3 C0=1.6 C1=3.4 CMatrix=[3.004631862, -0.585011253, -0.920293787, -0.585011253, 2.71134756, -0.350755566, -0.920293787, -0.350755566, 2.8517100719999995] EmergAmps=600.0 Geometry= LineCode=2 NormAmps=400.0 NumCust=0 Parent=0 Phases=3 R0=0.1784 R1=0.058 Rg=0.01805 Rho=100.0 RMatrix=[0.088371212, 0.02992424, 0.029545455, 0.02992424, 0.087405303, 0.02907197, 0.029545455, 0.02907197, 0.086666667] Spacing= TotalCust=0 Units=0 X0=0.4047 X1=0.1206 Xg=0.155081 XMatrix=[0.198522727, 0.080227273, 0.095018939, 0.080227273, 0.201723485, 0.072897727, 0.095018939, 0.072897727, 0.204166667] Yprim=[11.49174982736378, -22.08185823779643, -3.0577081510585957, 5.799162212779705, -4.991835327484466, 7.314899485483025, -11.49174982736378, 22.081858379386368, 3.0577081510585957, -5.7991622403477106, 4.991835327484466, -7.314899528850848, -3.0577081510585957, 5.799162212779705, 9.232766963617266, -20.565261622236317, -1.8013090694322507, 4.751463580059098, 3.0577081510585957, -5.7991622403477106, -9.232766963617266, 20.56526175000556, 1.8013090694322507, -4.7514635965880645, -4.991835327484466, 7.314899485483025, -1.8013090694322507, 4.751463580059098, 10.27675295211751, -21.309191397640273, 4.991835327484466, -7.314899528850848, 1.8013090694322507, -4.7514635965880645, -10.27675295211751, 21.309191532023945, -11.49174982736378, 22.081858379386368, 3.0577081510585957, -5.7991622403477106, 4.991835327484466, -7.314899528850848, 11.49174982736378, -22.08185823779643, -3.0577081510585957, 5.799162212779705, -4.991835327484466, 7.314899485483025, 3.0577081510585957, -5.7991622403477106, -9.232766963617266, 20.56526175000556, 1.8013090694322507, -4.7514635965880645, -3.0577081510585957, 5.799162212779705, 9.232766963617266, -20.565261622236317, -1.8013090694322507, 4.751463580059098, 4.991835327484466, -7.314899528850848, 1.8013090694322507, -4.7514635965880645, -10.27675295211751, 21.309191532023945, -4.991835327484466, 7.314899485483025, -1.8013090694322507, 4.751463580059098, 10.27675295211751, -21.309191397640273] Idx=23 IsSwitch=False SeasonRating=400.0 bus1=2a8e648d0e bus2=77852b95ae Length=0.24087236870020315 ;
new Line.0aab0e8b6b Bus1=23.3 Bus2=24.3 C0=3.4 C1=3.4 CMatrix=[2.270366128] EmergAmps=600.0 Geometry= LineCode=11 NormAmps=400.0 NumCust=0 Parent=0 Phases=1 R0=0.058 R1=0.058 Rg=0.01805 Rho=100.0 RMatrix=[0.251742424] Spacing= TotalCust=0 Units=0 X0=0.1206 X1=0.1206 Xg=0.155081 XMatrix=[0.255208333] Yprim=[3.5618191530414722, -3.6108569020587393, -3.5618191530414722, 3.6108571374334026, -3.5618191530414722, 3.6108571374334026, 3.5618191530414722, -3.6108569020587393] Idx=24 IsSwitch=False SeasonRating=400.0 bus1=258835a5b1 bus2=c0bb7ea622 Length=0.5647587514065797 ;
new Line.793dd4927f Bus1=23.1.2.3 Bus2=25.1.2.3 C0=1.6 C1=3.4 CMatrix=[3.004631862, -0.585011253, -0.920293787, -0.585011253, 2.71134756, -0.350755566, -0.920293787, -0.350755566, 2.8517100719999995] EmergAmps=600.0 Geometry= LineCode=2 NormAmps=400.0 NumCust=0 Parent=0 Phases=3 R0=0.1784 R1=0.058 Rg=0.01805 Rho=100.0 RMatrix=[0.088371212, 0.02992424, 0.029545455, 0.02992424, 0.087405303, 0.02907197, 0.029545455, 0.02907197, 0.086666667] Spacing= TotalCust=0 Units=0 X0=0.4047 X1=0.1206 Xg=0.155081 XMatrix=[0.198522727, 0.080227273, 0.095018939, 0.080227273, 0.201723485, 0.072897727, 0.095018939, 0.072897727, 0.204166667] Yprim=[10.447045297603438, -20.074416552784125, -2.779734682780542, 5.271965642718564, -4.5380321158949695, 6.649908614887073, -10.447045297603438, 20.07441670853306, 2.779734682780542, -5.271965673043371, 4.5380321158949695, -6.649908662591678, -2.779734682780542, 5.271965642718564, 8.393424512379331, -18.69569235945889, -1.6375536994838633, 4.31951234235274, 2.779734682780542, -5.271965673043371, -8.393424512379331, 18.695692500005055, 1.6375536994838633, -4.3195123605346035, -4.5380321158949695, 6.649908614887073, -1.6375536994838633, 4.31951234235274, 9.342502683743188, -19.371992154017907, 4.5380321158949695, -6.649908662591678, 1.6375536994838633, -4.3195123605346035, -9.342502683743188, 19.371992301839946, -10.447045297603438, 20.07441670853306, 2.779734682780542, -5.271965673043371, 4.5380321158949695, -6.649908662591678, 10.447045297603438, -20.074416552784125, -2.779734682780542, 5.271965642718564, -4.5380321158949695, 6.649908614887073, 2.779734682780542, -5.271965673043371, -8.393424512379331, 18.695692500005055, 1.6375536994838633, -4.3195123605346035, -2.779734682780542, 5.271965642718564, 8.393424512379331, -18.69569235945889, -1.6375536994838633, 4.31951234235274, 4.5380321158949695, -6.649908662591678, 1.6375536994838633, -4.3195123605346035, -9.342502683743188, 19.371992301839946, -4.5380321158949695, 6.649908614887073, -1.6375536994838633, 4.31951234235274, 9.342502683743188, -19.371992154017907] Idx=25 IsSwitch=False SeasonRating=400.0 bus1=77852b95ae bus2=c20314147d Length=0.28773854530333903 ;
new Line.337acef2ce Bus1=25r.1.3 Bus2=26.1.3 C0=1.6 C1=3.4 CMatrix=[2.569829596, -0.52995137, -0.52995137, 2.597460011] EmergAmps=600.0 Geometry= LineCode=7 NormAmps=400.0 NumCust=0 Parent=0 Phases=2 R0=0.1784 R1=0.058 Rg=0.01805 Rho=100.0 RMatrix=[0.086666667, 0.02907197, 0.02907197, 0.087405303] Spacing= TotalCust=0 Units=0 X0=0.4047 X1=0.1206 Xg=0.155081 XMatrix=[0.204166667, 0.072897727, 0.072897727, 0.201723485] Yprim=[5.860384602646994, -13.525771481219769, -2.2330752424388978, 4.764880546150121, -5.860384602646994, 13.525771650760282, 2.2330752424388978, -4.764880581112839, -2.2330752424388978, 4.764880546150121, 6.013774644554915, -13.60166808460249, 2.2330752424388978, -4.764880581112839, -6.013774644554915, 13.601668255965878, -5.860384602646994, 13.525771650760282, 2.2330752424388978, -4.764880581112839, 5.860384602646994, -13.525771481219769, -2.2330752424388978, 4.764880546150121, 2.2330752424388978, -4.764880581112839, -6.013774644554915, 13.601668255965878, -2.2330752424388978, 4.764880546150121, 6.013774644554915, -13.60166808460249] Idx=26 IsSwitch=False SeasonRating=400.0 bus1=f15b6f642f bus2=440026d845 Length=0.3563650033182885 ;